IEEE/34Bus/ieee34-2_Curr_Elem.Txt

CIRCUIT ELEMENT CURRENTS

(Currents into element from indicated bus)

Power Delivery Elements

  Bus     Phase    Magnitude, A     Angle      (Real)   +j  (Imag)

ELEMENT = "Vsource.SOURCE"
SOURCEBUS     1           16.868 /_ -162.3 =    -16.071 +j   -5.1226
SOURCEBUS     2           15.047 /_   83.4 =     1.7185 +j    14.949
SOURCEBUS     3           17.394 /_  -34.4 =     14.353 +j   -9.8259
------------
SOURCEBUS     0           16.868 /_   17.7 =     16.071 +j    5.1226
SOURCEBUS     0           15.047 /_  -96.6 =    -1.7185 +j   -14.949
SOURCEBUS     0           17.394 /_  145.6 =    -14.353 +j    9.8259

ELEMENT = "Transformer.SUBXF"
SOURCEBUS     1           16.868 /_   17.7 =     16.071 +j    5.1226
SOURCEBUS     2           15.047 /_  -96.6 =    -1.7185 +j   -14.949
SOURCEBUS     3           17.394 /_  145.6 =    -14.353 +j    9.8259
SOURCEBUS     0                0 /_    0.0 =          0 +j         0
SOURCEBUS Resid      1.4726E-009 /_  -71.6 =   4.6566E-010 +j -1.397E-009
------------
800           1           51.254 /_  167.8 =    -50.101 +j    10.809
800           2            44.54 /_   52.6 =     27.036 +j    35.396
800           3            40.92 /_  -62.7 =     18.787 +j   -36.352
800           0           10.742 /_  -66.5 =     4.2783 +j   -9.8534
800       Resid      2.6342E-009 /_  -45.0 =   1.8626E-009 +j -1.8626E-009

ELEMENT = "Line.L1"
800           1           51.254 /_  -12.2 =     50.101 +j   -10.809
800           2            44.54 /_ -127.4 =    -27.036 +j   -35.396
800           3            40.92 /_  117.3 =    -18.787 +j    36.352
800       Resid           10.742 /_  113.5 =     -4.2783 +j    9.8534
------------
802           1           51.268 /_  167.8 =    -50.105 +j    10.858
802           2            44.54 /_   52.6 =     27.072 +j    35.368
802           3           40.924 /_  -62.7 =     18.752 +j   -36.375
802       Resid           10.741 /_  -66.5 =      4.2804 +j   -9.8512

ELEMENT = "Line.L2A"
802           1           51.268 /_  -12.2 =     50.105 +j   -10.858
802           2            44.54 /_ -127.4 =    -27.072 +j   -35.368
802           3           40.924 /_  117.3 =    -18.752 +j    36.375
802       Resid           10.741 /_  113.5 =     -4.2804 +j    9.8512
------------
MID806        1           51.272 /_  167.8 =    -50.106 +j    10.874
MID806        2            44.54 /_   52.5 =     27.084 +j    35.359
MID806        3           40.926 /_  -62.7 =     18.741 +j   -36.383
MID806    Resid           10.741 /_  -66.5 =      4.2811 +j   -9.8504

ELEMENT = "Line.L2B"
MID806        1           51.272 /_  -12.2 =     50.106 +j   -10.874
MID806        2           42.444 /_ -126.5 =    -25.224 +j   -34.135
MID806        3           39.234 /_  118.5 =    -18.718 +j    34.481
MID806    Resid             12.2 /_  120.3 =     -6.1637 +j    10.528
------------
806           1           51.277 /_  167.7 =    -50.107 +j     10.89
806           2           42.444 /_   53.5 =     25.236 +j    34.126
806           3           39.235 /_  -61.5 =     18.706 +j   -34.488
806       Resid             12.2 /_  -59.6 =      6.1644 +j   -10.528

ELEMENT = "Line.L3"
806           1           51.277 /_  -12.3 =     50.107 +j    -10.89
806           2           42.444 /_ -126.5 =    -25.236 +j   -34.126
806           3           39.235 /_  118.5 =    -18.706 +j    34.488
806       Resid             12.2 /_  120.4 =     -6.1644 +j    10.528
------------
808           1           51.444 /_  167.1 =    -50.145 +j    11.488
808           2           42.435 /_   52.8 =     25.685 +j    33.779
808           3           39.277 /_  -62.3 =      18.27 +j    -34.77
808       Resid           12.187 /_  -59.5 =      6.1905 +j   -10.498

ELEMENT = "Line.L4A"
808           2           1.1991 /_ -142.8 =   -0.95524 +j  -0.72487
------------
MID810        2           1.2207 /_   34.8 =     1.0025 +j   0.69655

ELEMENT = "Line.L4B"
MID810        2          0.05506 /_  -31.0 =   0.047219 +j  -0.02832
------------
810           2      8.1348E-012 /_   26.6 =  7.276E-012 +j 3.638E-012

ELEMENT = "Line.L5"
808           1           51.444 /_  -12.9 =     50.145 +j   -11.488
808           2           41.281 /_ -126.8 =     -24.73 +j   -33.055
808           3           39.277 /_  117.7 =     -18.27 +j     34.77
808       Resid           12.107 /_  126.2 =     -7.1457 +j    9.7731
------------
812           1           51.633 /_  166.4 =    -50.179 +j    12.164
812           2           41.268 /_   52.3 =     25.236 +j    32.653
812           3           39.325 /_  -63.1 =     17.768 +j   -35.083
812       Resid           12.093 /_  -53.6 =      7.1757 +j   -9.7342

ELEMENT = "Line.L6"
812           1           51.633 /_  -13.6 =     50.179 +j   -12.164
812           2           41.268 /_ -127.7 =    -25.236 +j   -32.653
812           3           39.325 /_  116.9 =    -17.768 +j    35.083
812       Resid           12.093 /_  126.4 =     -7.1757 +j    9.7342
------------
814           1           51.777 /_  165.8 =    -50.199 +j    12.683
814           2           41.259 /_   51.6 =     25.626 +j    32.337
814           3           39.362 /_  -63.8 =     17.375 +j    -35.32
814       Resid            12.08 /_  -53.4 =       7.199 +j      -9.7

ELEMENT = "Line.L7"
814R          1           48.165 /_  -14.2 =     46.697 +j   -11.799
814R          2           40.009 /_ -128.4 =    -24.849 +j   -31.357
814R          3            38.17 /_  116.2 =    -16.848 +j     34.25
814R      Resid           10.213 /_  119.3 =     -4.9997 +j    8.9055
------------
850           1           48.165 /_  165.8 =    -46.697 +j    11.799
850           2           40.009 /_   51.6 =     24.849 +j    31.357
850           3            38.17 /_  -63.8 =     16.848 +j    -34.25
850       Resid           10.213 /_  -60.7 =      4.9997 +j   -8.9055

ELEMENT = "Line.L24"
850           1           48.165 /_  -14.2 =     46.697 +j   -11.799
850           2           40.009 /_ -128.4 =    -24.849 +j   -31.357
850           3            38.17 /_  116.2 =    -16.848 +j     34.25
850       Resid           10.213 /_  119.3 =     -4.9997 +j    8.9055
------------
816           1           48.166 /_  165.8 =    -46.697 +j    11.804
816           2           40.009 /_   51.6 =     24.853 +j    31.353
816           3            38.17 /_  -63.8 =     16.844 +j   -34.252
816       Resid           10.213 /_  -60.7 =           5 +j   -8.9052

ELEMENT = "Line.L8"
816           1           12.617 /_  -24.9 =      11.44 +j   -5.3203
------------
818           1           12.629 /_  154.9 =    -11.439 +j    5.3524

ELEMENT = "Line.L9A"
816           1           35.848 /_  -10.4 =     35.257 +j   -6.4838
816           2           40.009 /_ -128.4 =    -24.853 +j   -31.353
816           3            38.17 /_  116.2 =    -16.844 +j    34.252
816       Resid           7.3709 /_   29.1 =      6.4404 +j    3.5849
------------
MID824        1           35.867 /_  169.4 =    -35.259 +j    6.5734
MID824        2           40.007 /_   51.5 =     24.918 +j    31.299
MID824        3           38.177 /_  -63.9 =     16.778 +j   -34.292
MID824    Resid           7.3655 /_ -150.9 =     -6.4366 +j   -3.5804

ELEMENT = "Line.L9B"
MID824        1           35.867 /_  -10.6 =     35.259 +j   -6.5734
MID824        2           39.798 /_ -128.6 =    -24.829 +j   -31.102
MID824        3           38.039 /_  116.3 =    -16.867 +j    34.095
MID824    Resid           7.3655 /_   29.1 =      6.4366 +j    3.5804
------------
824           1           35.886 /_  169.3 =    -35.262 +j    6.6625
824           2           39.796 /_   51.3 =     24.894 +j    31.048
824           3           38.045 /_  -63.8 =     16.801 +j   -34.135
824       Resid             7.36 /_ -150.9 =     -6.4328 +j    -3.576

ELEMENT = "Line.L10A"
818           1           12.629 /_  -25.1 =     11.439 +j   -5.3524
------------
MID820        1            12.81 /_  153.1 =     -11.42 +j    5.8033

ELEMENT = "Line.L10B"
MID820        1           10.125 /_  -26.4 =     9.0699 +j   -4.5006
------------
820           1           10.316 /_  151.3 =    -9.0505 +j    4.9506

ELEMENT = "Line.L11A"
820           1           10.316 /_  -28.7 =     9.0505 +j   -4.9506
------------
MID822        1           10.373 /_  150.7 =    -9.0448 +j    5.0789

ELEMENT = "Line.L11B"
MID822        1          0.12836 /_   87.5 =  0.0056825 +j   0.12824
------------
822           1       1.819E-012 /_  -90.0 =          0 +j -1.819E-012

ELEMENT = "Line.L12A"
824           2           3.0859 /_ -148.6 =    -2.6329 +j   -1.6095
------------
MID826        2           3.0982 /_   31.0 =     2.6567 +j    1.5941

ELEMENT = "Line.L12B"
MID826        2         0.028366 /_  -32.9 =   0.023806 +j -0.015424
------------
826           2       2.058E-011 /_  -45.0 =  1.4552E-011 +j -1.4552E-011

ELEMENT = "Line.L13A"
824           1           35.886 /_  -10.7 =     35.262 +j   -6.6625
824           2           36.908 /_ -127.1 =    -22.261 +j   -29.439
824           3           38.045 /_  116.2 =    -16.801 +j    34.135
824       Resid           4.2786 /_   27.4 =      3.7999 +j    1.9665
------------
MID828        1           35.887 /_  169.3 =    -35.262 +j    6.6698
MID828        2           36.908 /_   52.9 =     22.266 +j    29.434
MID828        3           38.046 /_  -63.8 =     16.795 +j   -34.138
MID828    Resid           4.2782 /_ -152.6 =     -3.7996 +j   -1.9662

ELEMENT = "Line.L13B"
MID828        1           35.887 /_  -10.7 =     35.262 +j   -6.6698
MID828        2           36.908 /_ -127.1 =    -22.266 +j   -29.434
MID828        3           37.767 /_  116.4 =    -16.789 +j     33.83
MID828    Resid           4.4227 /_   30.9 =      3.7934 +j    2.2738
------------
828           1           35.889 /_  169.3 =    -35.262 +j    6.6772
828           2           36.907 /_   52.9 =     22.272 +j     29.43
828           3           37.768 /_  -63.6 =     16.783 +j   -33.834
828       Resid           4.4222 /_ -149.1 =     -3.7931 +j   -2.2735

ELEMENT = "Line.L14A"
828           1           35.889 /_  -10.7 =     35.262 +j   -6.6772
828           2           36.907 /_ -127.1 =    -22.272 +j    -29.43
828           3           37.768 /_  116.4 =    -16.783 +j    33.834
828       Resid           4.4222 /_   30.9 =      3.7931 +j    2.2735
------------
MID830        1           35.926 /_  169.0 =    -35.266 +j    6.8544
MID830        2             36.9 /_   52.6 =       22.4 +j    29.322
MID830        3           37.779 /_  -63.8 =     16.651 +j   -33.912
MID830    Resid           4.4111 /_ -149.1 =     -3.7853 +j   -2.2647

ELEMENT = "Line.L14B"
MID830        1           35.414 /_  -10.8 =     34.789 +j   -6.6239
MID830        2             36.9 /_ -127.4 =      -22.4 +j   -29.322
MID830        3           37.779 /_  116.2 =    -16.651 +j    33.912
MID830    Resid           4.7231 /_   25.5 =      4.2625 +j    2.0343
------------
830           1           35.451 /_  168.9 =    -34.793 +j    6.7996
830           2           36.892 /_   52.4 =     22.528 +j    29.215
830           3           37.791 /_  -64.1 =      16.52 +j   -33.989
830       Resid           4.7122 /_ -154.5 =     -4.2546 +j   -2.0257

ELEMENT = "Line.L15"
830           1           34.241 /_  -10.0 =     33.723 +j   -5.9296
830           2           36.175 /_ -127.2 =    -21.858 +j   -28.824
830           3           36.482 /_  116.2 =     -16.12 +j    32.728
830       Resid           4.7122 /_   25.5 =      4.2546 +j    2.0257
------------
854           1           34.243 /_  170.0 =    -33.724 +j    5.9385
854           2           36.174 /_   52.8 =     21.865 +j    28.819
854           3           36.483 /_  -63.8 =     16.113 +j   -32.732
854       Resid           4.7117 /_ -154.5 =     -4.2542 +j   -2.0252

ELEMENT = "Line.L16A"
832           1           21.331 /_    0.5 =      21.33 +j   0.17934
832           2           23.402 /_ -116.8 =    -10.555 +j   -20.887
832           3           24.342 /_  128.3 =    -15.091 +j    19.099
832       Resid           4.6052 /_   20.4 =      4.3154 +j    1.6081
------------
MID858        1           21.331 /_ -179.6 =    -21.331 +j  -0.13554
MID858        2           23.392 /_   63.1 =     10.586 +j     20.86
MID858        3           24.336 /_  -51.8 =     15.058 +j   -19.118
MID858    Resid           4.6025 /_ -159.6 =     -4.3131 +j   -1.6062

ELEMENT = "Line.L16B"
MID858        1           20.877 /_    1.0 =     20.874 +j   0.35964
MID858        2           23.142 /_ -116.2 =    -10.221 +j   -20.763
MID858        3           24.027 /_  128.5 =    -14.966 +j    18.797
MID858    Resid           4.6025 /_   20.4 =      4.3131 +j    1.6062
------------
858           1           20.877 /_ -179.1 =    -20.874 +j  -0.31589
858           2           23.132 /_   63.7 =     10.252 +j    20.736
858           3           24.021 /_  -51.6 =     14.933 +j   -18.816
858       Resid           4.5997 /_ -159.6 =     -4.3109 +j   -1.6042

ELEMENT = "Line.L29A"
858           1           20.745 /_    1.0 =     20.742 +j   0.35976
858           2           23.132 /_ -116.3 =    -10.252 +j   -20.736
858           3           24.021 /_  128.4 =    -14.933 +j    18.816
858       Resid           4.7091 /_   19.4 =       4.443 +j    1.5604
------------
MID834        1           20.745 /_ -179.1 =    -20.743 +j  -0.30776
MID834        2           23.119 /_   63.6 =     10.289 +j    20.704
MID834        3           24.014 /_  -51.7 =     14.894 +j   -18.838
MID834    Resid           4.7058 /_ -160.7 =     -4.4404 +j   -1.5581

ELEMENT = "Line.L29B"
MID834        1           20.314 /_    2.3 =     20.298 +j   0.81675
MID834        2           22.385 /_ -115.9 =    -9.7631 +j   -20.143
MID834        3           23.237 /_  130.1 =    -14.975 +j    17.768
MID834    Resid           4.7058 /_   19.3 =      4.4404 +j    1.5581
------------
834           1           20.313 /_ -177.8 =    -20.298 +j  -0.76482
834           2           22.372 /_   64.0 =     9.7999 +j    20.111
834           3           23.229 /_  -50.0 =     14.936 +j    -17.79
834       Resid           4.7025 /_ -160.7 =     -4.4377 +j   -1.5559

ELEMENT = "Line.L18"
834           1           14.765 /_   34.6 =     12.149 +j    8.3898
834           2           16.307 /_  -95.6 =    -1.5978 +j   -16.229
834           3           15.114 /_  151.0 =     -13.22 +j    7.3259
834       Resid           2.7168 /_   10.9 =      2.6679 +j   0.51287
------------
842           1           14.762 /_ -145.4 =    -12.149 +j   -8.3848
842           2           16.304 /_   84.4 =     1.6013 +j    16.226
842           3           15.111 /_  -29.0 =     13.216 +j    -7.328
842       Resid           2.7165 /_ -169.1 =     -2.6676 +j  -0.51265

ELEMENT = "Line.L19A"
836           1           1.4958 /_  -20.1 =      1.405 +j   -0.5134
836           2             2.33 /_ -152.0 =    -2.0573 +j   -1.0938
836           3           1.7467 /_   68.0 =    0.65552 +j     1.619
836       Resid         0.012261 /_ -104.8 =   -0.0031375 +j -0.011853
------------
MID840        1           1.4985 /_  159.7 =     -1.405 +j   0.52105
MID840        2           2.3326 /_   27.8 =     2.0628 +j     1.089
MID840        3           1.7519 /_ -112.2 =   -0.66128 +j   -1.6223
MID840    Resid         0.012687 /_   73.8 =   0.0035352 +j  0.012185

ELEMENT = "Line.L19B"
MID840        1          0.78804 /_  -40.8 =    0.59683 +j   -0.5146
MID840        2          0.78941 /_ -161.8 =   -0.75001 +j  -0.24627
MID840        3          0.78878 /_   78.5 =    0.15672 +j   0.77305
MID840    Resid         0.012687 /_ -106.2 =   -0.0035352 +j -0.012185
------------
840           1           0.7931 /_  138.8 =   -0.59688 +j   0.52225
840           2           0.7931 /_   17.7 =    0.75543 +j   0.24151
840           3           0.7931 /_ -101.8 =   -0.16249 +j  -0.77628
840       Resid          0.01312 /_   72.6 =   0.0039329 +j  0.012517

ELEMENT = "Line.L21A"
842           1           14.762 /_   34.6 =     12.149 +j    8.3848
842           2           16.304 /_  -95.6 =    -1.6013 +j   -16.226
842           3           15.111 /_  151.0 =    -13.216 +j     7.328
842       Resid           2.7165 /_   10.9 =      2.6676 +j   0.51265
------------
MID844        1           14.755 /_ -145.4 =     -12.15 +j   -8.3728
MID844        2           16.298 /_   84.3 =     1.6098 +j    16.218
MID844        3           15.106 /_  -29.0 =     13.207 +j   -7.3331
MID844    Resid           2.7157 /_ -169.1 =      -2.667 +j  -0.51213

ELEMENT = "Line.L21B"
MID844        1           14.498 /_   37.1 =     11.564 +j    8.7445
MID844        2           16.298 /_  -95.7 =    -1.6098 +j   -16.218
MID844        3           15.106 /_  151.0 =    -13.207 +j    7.3331
MID844    Resid           3.2559 /_    2.5 =      3.2529 +j   0.14046
------------
844           1           14.491 /_ -142.9 =    -11.564 +j   -8.7325
844           2           16.291 /_   84.3 =     1.6183 +j    16.211
844           3           15.101 /_  -29.1 =     13.198 +j   -7.3382
844       Resid           3.2553 /_ -177.5 =     -3.2523 +j  -0.13993

ELEMENT = "Line.L22A"
844           1           9.8437 /_   78.8 =     1.9095 +j    9.6567
844           2              9.4 /_  -63.9 =     4.1426 +j   -8.4379
844           3           9.3968 /_ -170.7 =    -9.2737 +j   -1.5162
844       Resid           3.2353 /_    5.3 =      3.2216 +j   0.29743
------------
MID846        1           9.8119 /_ -101.2 =    -1.9097 +j   -9.6243
MID846        2           9.3718 /_  116.1 =    -4.1197 +j    8.4178
MID846        3           9.3705 /_    9.2 =     9.2493 +j    1.5026
MID846    Resid           3.2335 /_ -174.7 =     -3.2199 +j  -0.29602

ELEMENT = "Line.L22B"
MID846        1           9.8119 /_   78.8 =     1.9097 +j    9.6243
MID846        2           9.4336 /_  -52.5 =     5.7438 +j   -7.4834
MID846        3           9.8083 /_ -161.9 =    -9.3249 +j   -3.0411
MID846    Resid           1.8985 /_   28.3 =      1.6715 +j   0.90021
------------
846           1           9.7802 /_ -101.3 =    -1.9099 +j   -9.5919
846           2           9.4036 /_  127.5 =    -5.7208 +j    7.4633
846           3           9.7808 /_   18.0 =     9.3005 +j    3.0274
846       Resid           1.8963 /_ -151.7 =     -1.6698 +j  -0.89881

ELEMENT = "Line.L23A"
846           1           9.7802 /_   78.7 =     1.9099 +j    9.5919
846           2           9.4036 /_  -52.5 =     5.7208 +j   -7.4633
846           3           9.7808 /_ -162.0 =    -9.3005 +j   -3.0274
846       Resid           1.8963 /_   28.3 =      1.6698 +j   0.89881
------------
MID848        1           9.7756 /_ -101.3 =    -1.9099 +j   -9.5872
MID848        2           9.3993 /_  127.5 =    -5.7175 +j    7.4603
MID848        3           9.7768 /_   18.0 =     9.2969 +j    3.0254
MID848    Resid            1.896 /_ -151.7 =     -1.6695 +j   -0.8986

ELEMENT = "Line.L23B"
MID848        1           9.7756 /_   78.7 =     1.9099 +j    9.5872
MID848        2           9.7744 /_  -42.5 =     7.2097 +j      -6.6
MID848        3           9.7768 /_ -162.0 =    -9.2969 +j   -3.0254
MID848    Resid          0.18138 /_   12.2 =      0.1773 +j  0.038232
------------
848           1           9.7709 /_ -101.3 =    -1.9099 +j   -9.5825
848           2             9.77 /_  137.5 =    -7.2064 +j     6.597
848           3           9.7728 /_   18.0 =     9.2934 +j    3.0235
848       Resid           0.1811 /_ -167.9 =    -0.17706 +j -0.038028

ELEMENT = "Line.L26A"
854           2          0.40205 /_  -77.3 =   0.088372 +j  -0.39222
------------
MID856        2          0.28871 /_   71.7 =   0.090729 +j   0.27408

ELEMENT = "Line.L26B"
MID856        2          0.21456 /_  -33.4 =     0.1791 +j  -0.11814
------------
856           2       1.875E-012 /_ -166.0 =  -1.819E-012 +j -4.5475E-013

ELEMENT = "Line.L27"
854           1           34.243 /_  -10.0 =     33.724 +j   -5.9385
854           2           35.917 /_ -127.7 =    -21.953 +j   -28.426
854           3           36.483 /_  116.2 =    -16.113 +j    32.732
854       Resid           4.6395 /_   20.6 =      4.3426 +j     1.633
------------
852           1           34.365 /_  169.0 =    -33.733 +j    6.5587
852           2           35.891 /_   51.4 =       22.4 +j    28.043
852           3           36.521 /_  -64.6 =     15.647 +j   -32.999
852       Resid           4.6015 /_ -159.6 =     -4.3133 +j   -1.6029

ELEMENT = "Line.L25"
852R          1           31.783 /_  -11.0 =     31.198 +j   -6.0658
852R          2           33.583 /_ -128.6 =    -20.959 +j   -26.239
852R          3           33.973 /_  115.4 =    -14.555 +j    30.697
852R      Resid           4.6056 /_   20.4 =      4.3156 +j    1.6083
------------
832           1           31.783 /_  169.0 =    -31.198 +j     6.066
832           2           33.583 /_   51.4 =     20.959 +j    26.239
832           3           33.973 /_  -64.6 =     14.555 +j   -30.697
832       Resid           4.6056 /_ -159.6 =     -4.3156 +j   -1.6083

ELEMENT = "Transformer.XFM1"
832           1           11.678 /_  -32.3 =     9.8681 +j   -6.2453
832           2             11.7 /_ -152.8 =    -10.404 +j   -5.3526
832           3            11.61 /_   87.4 =    0.53592 +j    11.598
832           0       0.00035417 /_   39.8 =  0.00027199 +j 0.00022684
832       Resid      8.8953E-008 /_ -162.4 =   -8.4794E-008 +j -2.6881E-008
------------
888           1           69.901 /_  147.7 =    -59.066 +j    37.382
888           2           70.034 /_   27.2 =     62.276 +j    32.038
888           3           69.493 /_  -92.6 =    -3.2077 +j   -69.419
888           0        0.0021199 /_ -140.2 =  -0.001628 +j -0.0013578
888       Resid      5.3248E-007 /_ -162.4 =   -5.0759E-007 +j -1.6091E-007

ELEMENT = "Line.L28A"
858           1          0.13923 /_  -18.4 =    0.13214 +j -0.043867
------------
MID864        1          0.14403 /_  155.7 =   -0.13126 +j  0.059291

ELEMENT = "Line.L28B"
MID864        1         0.015448 /_   86.8 =  0.00087532 +j  0.015423
------------
864           1       7.276E-012 /_    0.0 =  7.276E-012 +j         0

ELEMENT = "Line.L17A"
834           1            11.16 /_  -43.1 =      8.149 +j    -7.625
834           2           9.0746 /_ -154.7 =    -8.2021 +j   -3.8824
834           3           10.604 /_   99.3 =    -1.7166 +j    10.464
834       Resid           2.0542 /_   30.5 =      1.7698 +j     1.043
------------
MID860        1           11.172 /_  136.8 =    -8.1491 +j     7.643
MID860        2           9.0813 /_   25.2 =     8.2149 +j    3.8712
MID860        3            10.61 /_  -80.8 =     1.7031 +j   -10.472
MID860    Resid            2.053 /_ -149.5 =     -1.7688 +j   -1.0422

ELEMENT = "Line.L17B"
MID860        1           5.8525 /_  -33.5 =     4.8791 +j   -3.2321
MID860        2           7.6479 /_ -156.2 =    -6.9987 +j   -3.0837
MID860        3           5.2852 /_   86.2 =    0.35082 +j    5.2735
MID860    Resid            2.053 /_   30.5 =      1.7688 +j    1.0422
------------
860           1           5.8625 /_  146.3 =    -4.8792 +j    3.2501
860           2           7.6551 /_   23.7 =     7.0115 +j    3.0725
860           3           5.2937 /_  -93.9 =   -0.36437 +j   -5.2811
860       Resid           2.0519 /_ -149.5 =     -1.7679 +j   -1.0414

ELEMENT = "Line.L30A"
860           1           4.1616 /_  -30.2 =     3.5956 +j   -2.0954
860           2             5.94 /_ -154.4 =    -5.3561 +j   -2.5681
860           3            3.594 /_   90.2 =  -0.012991 +j     3.594
860       Resid           2.0711 /_   31.1 =      1.7735 +j    1.0695
------------
MID836        1           4.1738 /_  149.5 =    -3.5958 +j    2.1193
MID836        2           5.9488 /_   25.4 =      5.373 +j    2.5533
MID836        3           3.6041 /_  -90.1 =  -0.0049845 +j   -3.6041
MID836    Resid           2.0695 /_ -148.9 =     -1.7723 +j   -1.0685

ELEMENT = "Line.L30B"
MID836        1            1.486 /_  -19.0 =     1.4048 +j  -0.48458
MID836        2           4.3957 /_ -150.1 =    -3.8108 +j   -2.1908
MID836        3           1.7274 /_   68.5 =    0.63379 +j    1.6069
MID836    Resid           2.0695 /_   31.1 =      1.7723 +j    1.0685
------------
836           1           1.4941 /_  160.1 =    -1.4049 +j   0.50842
836           2            4.403 /_   29.6 =     3.8277 +j     2.176
836           3           1.7434 /_ -112.0 =   -0.65176 +j   -1.6169
836       Resid           2.0679 /_ -148.9 =     -1.7711 +j   -1.0675

ELEMENT = "Line.L20"
836           1        0.0049818 /_   90.4 =  -3.39E-005 +j 0.0049817
836           2            2.075 /_ -148.6 =    -1.7704 +j   -1.0822
836           3        0.0043035 /_ -150.8 =  -0.0037556 +j -0.0021013
836       Resid           2.0767 /_   31.3 =      1.7742 +j    1.0793
------------
862           1      4.0674E-011 /_  116.6 =  -1.819E-011 +j 3.638E-011
862           2           2.0764 /_   31.3 =     1.7739 +j    1.0791
862           3      3.1083E-011 /_  110.6 =  -1.0914E-011 +j 2.9104E-011
862       Resid           2.0764 /_ -148.7 =     -1.7739 +j   -1.0791

ELEMENT = "Line.L31A"
862           2           2.0764 /_ -148.7 =    -1.7739 +j   -1.0791
------------
MID838        2           2.0957 /_   30.2 =      1.812 +j    1.0531

ELEMENT = "Line.L31B"
MID838        2          0.04608 /_  -34.4 =   0.038022 +j -0.026032
------------
838           2       5.457E-012 /_  -90.0 =          0 +j -5.457E-012

ELEMENT = "Line.L32"
888           1           69.901 /_  -32.3 =     59.066 +j   -37.382
888           2           70.034 /_ -152.8 =    -62.276 +j   -32.038
888           3           69.493 /_   87.4 =     3.2077 +j    69.419
888       Resid        0.0021204 /_   39.8 =   0.0016285 +j 0.0013579
------------
890           1           69.917 /_  147.6 =    -59.066 +j    37.412
890           2           70.043 /_   27.2 =     62.297 +j    32.019
890           3           69.506 /_  -92.7 =    -3.2309 +j   -69.431
890       Resid      5.8593E-014 /_   76.0 =   1.4211E-014 +j 5.6843E-014

ELEMENT = "Capacitor.C844"
844           1           7.1791 /_   86.7 =    0.41915 +j    7.1668
844           2           7.1617 /_  -34.4 =     5.9075 +j   -4.0486
844           3           7.1691 /_ -154.0 =    -6.4423 +j   -3.1452
844       Resid          0.11877 /_   13.1 =     0.11566 +j  0.027019
------------
844           0           7.1791 /_  -93.3 =   -0.41915 +j   -7.1668
844           0           7.1617 /_  145.6 =    -5.9075 +j    4.0486
844           0           7.1691 /_   26.0 =     6.4423 +j    3.1452
844       Resid          0.11877 /_ -166.9 =    -0.11566 +j -0.027019

ELEMENT = "Capacitor.C848"
848           1           10.772 /_   86.6 =    0.63841 +j    10.753
848           2           10.743 /_  -34.5 =     8.8557 +j   -6.0811
848           3           10.757 /_ -154.0 =    -9.6712 +j   -4.7097
848       Resid           0.1811 /_   12.1 =     0.17706 +j  0.038028
------------
848           0           10.772 /_  -93.4 =   -0.63841 +j   -10.753
848           0           10.743 /_  145.5 =    -8.8557 +j    6.0811
848           0           10.757 /_   26.0 =     9.6712 +j    4.7097
848       Resid           0.1811 /_ -167.9 =    -0.17706 +j -0.038028

ELEMENT = "Transformer.REG1A"
814           1           51.777 /_  -14.2 =     50.199 +j   -12.683
814           0           51.777 /_  165.8 =    -50.199 +j    12.683
------------
814R          1           48.165 /_  165.8 =    -46.697 +j    11.799
814R          0           48.165 /_  -14.2 =     46.697 +j   -11.799

ELEMENT = "Transformer.REG1B"
814           2           41.259 /_ -128.4 =    -25.626 +j   -32.337
814           0           41.259 /_   51.6 =     25.626 +j    32.337
------------
814R          2           40.009 /_   51.6 =     24.849 +j    31.357
814R          0           40.009 /_ -128.4 =    -24.849 +j   -31.357

ELEMENT = "Transformer.REG1C"
814           3           39.362 /_  116.2 =    -17.375 +j     35.32
814           0           39.362 /_  -63.8 =     17.375 +j    -35.32
------------
814R          3            38.17 /_  -63.8 =     16.848 +j    -34.25
814R          0            38.17 /_  116.2 =    -16.848 +j     34.25

ELEMENT = "Transformer.REG2A"
852           1           34.365 /_  -11.0 =     33.733 +j   -6.5587
852           0           34.365 /_  169.0 =    -33.733 +j    6.5587
------------
852R          1           31.783 /_  169.0 =    -31.198 +j    6.0658
852R          0           31.783 /_  -11.0 =     31.198 +j   -6.0658

ELEMENT = "Transformer.REG2B"
852           2           35.891 /_ -128.6 =      -22.4 +j   -28.043
852           0           35.891 /_   51.4 =       22.4 +j    28.043
------------
852R          2           33.583 /_   51.4 =     20.959 +j    26.239
852R          0           33.583 /_ -128.6 =    -20.959 +j   -26.239

ELEMENT = "Transformer.REG2C"
852           3           36.521 /_  115.4 =    -15.647 +j    32.999
852           0           36.521 /_  -64.6 =     15.647 +j   -32.999
------------
852R          3           33.973 /_  -64.6 =     14.555 +j   -30.697
852R          0           33.973 /_  115.4 =    -14.555 +j    30.697

= = = = = = = = = = = = = = = = = = =  = = = = = = = = = = =  = =

Power Conversion Elements

  Bus     Phase    Magnitude, A     Angle      (Real)   +j  (Imag)

ELEMENT = "Load.S860"
860           1           1.7265 /_  -42.0 =     1.2836 +j   -1.1546
860           2           1.7305 /_ -163.1 =    -1.6554 +j  -0.50438
860           3           1.7288 /_   77.4 =    0.37736 +j    1.6871
860           0         0.028653 /_ -101.3 =  -0.0056185 +j -0.028096

ELEMENT = "Load.S840"
840           1          0.79311 /_  -41.2 =    0.59689 +j  -0.52225
840           2          0.79311 /_ -162.3 =   -0.75544 +j  -0.24152
840           3          0.79311 /_   78.2 =    0.16249 +j   0.77629
840           0         0.013117 /_ -107.5 =  -0.003934 +j -0.012513

ELEMENT = "Load.S844"
844           1           12.278 /_  -41.2 =     9.2352 +j   -8.0911
844           2           12.248 /_ -162.3 =    -11.669 +j   -3.7241
844           3           12.261 /_   78.1 =     2.5184 +j        12
844           0          0.20309 /_ -114.7 =  -0.084984 +j  -0.18445

ELEMENT = "Load.S848"
848           1           1.7282 /_  -42.6 =     1.2715 +j   -1.1704
848           2           1.7282 /_ -162.6 =    -1.6494 +j  -0.51591
848           3           1.7281 /_   77.4 =    0.37783 +j    1.6863

ELEMENT = "Load.S830A"
830           1          0.44817 /_    0.5 =    0.44816 +j 0.0040102
830           2          0.44817 /_ -179.5 =   -0.44816 +j -0.0040102

ELEMENT = "Load.S830B"
830           2          0.44584 /_ -119.7 =   -0.22119 +j  -0.38711
830           3          0.44584 /_   60.3 =    0.22119 +j   0.38711

ELEMENT = "Load.S830C"
830           3           1.0724 /_  125.4 =   -0.62135 +j   0.87403
830           1           1.0724 /_  -54.6 =    0.62135 +j  -0.87403

ELEMENT = "Load.S890"
890           1           69.919 /_  -32.4 =     59.068 +j   -37.413
890           2           70.045 /_ -152.8 =    -62.298 +j    -32.02
890           3           69.508 /_   87.3 =     3.2305 +j    69.433

ELEMENT = "Load.D802_806B"
MID806        2           2.2265 /_ -146.7 =    -1.8599 +j   -1.2238
MID806        0           2.2265 /_   33.3 =     1.8599 +j    1.2238

ELEMENT = "Load.D802_806C"
MID806        3            1.902 /_   90.7 =   -0.02263 +j    1.9019
MID806        0            1.902 /_  -89.3 =    0.02263 +j   -1.9019

ELEMENT = "Load.D808_810B"
MID810        2           1.2443 /_ -147.5 =    -1.0497 +j  -0.66824
MID810        0           1.2443 /_   32.5 =     1.0497 +j   0.66824

ELEMENT = "Load.D818_820A"
MID820        1           2.6873 /_  -29.0 =     2.3504 +j   -1.3027
MID820        0           2.6873 /_  151.0 =    -2.3504 +j    1.3027

ELEMENT = "Load.D820_822A"
MID822        1           10.432 /_  -29.9 =     9.0392 +j   -5.2072
MID822        0           10.432 /_  150.1 =    -9.0392 +j    5.2072

ELEMENT = "Load.D816_824B"
MID824        2          0.21627 /_ -114.4 =  -0.089253 +j    -0.197
MID824        3          0.21627 /_   65.6 =   0.089253 +j     0.197

ELEMENT = "Load.D824_826B"
MID826        2           3.1108 /_ -149.5 =    -2.6805 +j   -1.5787
MID826        0           3.1108 /_   30.5 =     2.6805 +j    1.5787

ELEMENT = "Load.D824_828C"
MID828        3          0.30773 /_   91.2 =  -0.0062069 +j   0.30767
MID828        0          0.30773 /_  -88.8 =  0.0062069 +j  -0.30767

ELEMENT = "Load.D828_830A"
MID830        1          0.52992 /_  -25.8 =     0.4772 +j  -0.23043
MID830        0          0.52992 /_  154.2 =    -0.4772 +j   0.23043

ELEMENT = "Load.D854_856B"
MID856        2          0.31165 /_ -150.0 =   -0.26983 +j  -0.15594
MID856        0          0.31165 /_   30.0 =    0.26983 +j   0.15594

ELEMENT = "Load.D832_858A"
MID858        1          0.31817 /_    3.0 =    0.31773 +j  0.016856
MID858        2          0.31817 /_ -177.0 =   -0.31773 +j -0.016856

ELEMENT = "Load.D832_858B"
MID858        2         0.092647 /_ -120.6 =  -0.047096 +j -0.079783
MID858        3         0.092647 /_   59.4 =   0.047096 +j  0.079783

ELEMENT = "Load.D832_858C"
MID858        3          0.27816 /_  120.0 =   -0.13896 +j   0.24096
MID858        1          0.27816 /_  -60.0 =    0.13896 +j  -0.24096

ELEMENT = "Load.D858_864A"
MID864        1          0.15028 /_  -29.8 =    0.13039 +j -0.074715
MID864        0          0.15028 /_  150.2 =   -0.13039 +j  0.074715

ELEMENT = "Load.D858_834A"
MID834        1          0.17304 /_   -0.4 =    0.17304 +j -0.0012493
MID834        2          0.17304 /_  179.6 =   -0.17304 +j 0.0012493

ELEMENT = "Load.D858_834B"
MID834        2          0.66329 /_ -122.2 =   -0.35315 +j  -0.56146
MID834        3          0.66329 /_   57.8 =    0.35315 +j   0.56146

ELEMENT = "Load.D858_834C"
MID834        3          0.57582 /_  118.1 =   -0.27159 +j   0.50775
MID834        1          0.57582 /_  -61.9 =    0.27159 +j  -0.50775

ELEMENT = "Load.D834_860A"
MID860        1          0.74461 /_   -0.5 =    0.74459 +j -0.005926
MID860        2          0.74461 /_  179.5 =   -0.74459 +j  0.005926

ELEMENT = "Load.D834_860B"
MID860        2          0.92305 /_ -120.7 =   -0.47155 +j  -0.79351
MID860        3          0.92305 /_   59.3 =    0.47155 +j   0.79351

ELEMENT = "Load.D834_860C"
MID860        3           5.0777 /_  119.8 =    -2.5255 +j    4.4051
MID860        1           5.0777 /_  -60.2 =     2.5255 +j   -4.4051

ELEMENT = "Load.D860_836A"
MID836        1           1.3001 /_   -0.5 =        1.3 +j -0.010346
MID836        2           1.3001 /_  179.5 =       -1.3 +j  0.010346

ELEMENT = "Load.D860_836B"
MID836        2          0.45579 /_ -125.1 =   -0.26219 +j  -0.37282
MID836        3          0.45579 /_   54.9 =    0.26219 +j   0.37282

ELEMENT = "Load.D860_836C"
MID836        3           1.8527 /_  118.7 =   -0.89101 +j    1.6244
MID836        1           1.8527 /_  -61.3 =    0.89101 +j   -1.6244

ELEMENT = "Load.D836_840A"
MID840        1          0.80822 /_   -0.5 =    0.80819 +j -0.0064582
MID840        2          0.80822 /_  179.5 =   -0.80819 +j 0.0064582

ELEMENT = "Load.D836_840B"
MID840        2          0.98782 /_ -120.7 =   -0.50457 +j  -0.84923
MID840        3          0.98782 /_   59.3 =    0.50457 +j   0.84923

ELEMENT = "Load.D862_838B"
MID838        2            2.116 /_ -151.0 =      -1.85 +j    -1.027
MID838        0            2.116 /_   29.0 =       1.85 +j     1.027

ELEMENT = "Load.D842_844A"
MID844        1          0.69384 /_  -32.4 =    0.58589 +j  -0.37168
MID844        0          0.69384 /_  147.6 =   -0.58589 +j   0.37168

ELEMENT = "Load.D844_846B"
MID846        2           1.8737 /_ -150.1 =    -1.6241 +j  -0.93433
MID846        0           1.8737 /_   29.9 =     1.6241 +j   0.93433

ELEMENT = "Load.D844_846C"
MID846        3           1.5404 /_   87.2 =   0.075624 +j    1.5385
MID846        0           1.5404 /_  -92.8 =  -0.075624 +j   -1.5385

ELEMENT = "Load.D846_848B"
MID848        2           1.7225 /_ -150.0 =    -1.4923 +j  -0.86038
MID848        0           1.7225 /_   30.0 =     1.4923 +j   0.86038

